Collecting data...
LAMMPS (29 Aug 2024 - Update 1)
KOKKOS mode with Kokkos version 4.3.1 is enabled (src/KOKKOS/kokkos.cpp:72)
  will use up to 1 GPU(s) per node
variable        dcdfreq index 5000
variable        data_dir index ../../data/6zfo
variable        outputname index step5_production_mini
variable        inputname  index ../../data/6zfo/step4.1_equilibration

units           real
boundary        p p p

newton          on
pair_style      lj/charmm/coul/long 12 15
pair_modify     mix arithmetic
kspace_style    pppm 1e-6

prec_type       double
set prec_type to double precision
pair_sep_special  on
set use_sep_sepcial to: 1

atom_style      full
bond_style      harmonic
angle_style     charmm
dihedral_style  charmm
special_bonds   charmm
improper_style  harmonic
timestep        2

fix             cmap all cmap ../../data/6zfo/charmmff.cmap
Reading CMAP parameters from: ../../data/6zfo/charmmff.cmap
fix_modify      cmap energy yes
read_data       ../../data/6zfo/step3_input.data fix cmap crossterm CMAP
Reading data file ...
  orthogonal box = (-101 -101 -101) to (101 101 101)
  reading atoms ...
  778254 atoms
  scanning bonds ...
  scanning angles ...
  scanning dihedrals ...
  scanning impropers ...
  orthogonal box = (-101 -101 -101) to (101 101 101)
  reading bonds ...
  524508 bonds
  reading angles ...
  287460 angles
  reading dihedrals ...
  61096 dihedrals
  reading impropers ...
  3292 impropers
Finding 1-2 1-3 1-4 neighbors ...
     4 = max # of 1-2 neighbors
     9 = max # of 1-3 neighbors
    19 = max # of 1-4 neighbors
    21 = max # of special neighbors

variable        laststep file ../../data/6zfo/step4.1_equilibration.dump
next            laststep
read_dump       ../../data/6zfo/step4.1_equilibration.dump 25000  x y z vx vy vz ix iy iz box yes replace yes format native
Scanning dump file ...
Reading snapshot from dump file ...
  orthogonal box = (-101 -101 -101) to (101 101 101)
  778254 atoms before read
  778254 atoms in snapshot
  0 atoms purged
  778254 atoms replaced
  0 atoms trimmed
  0 atoms added
  778254 atoms after read

neighbor        2 bin
neigh_modify    delay 5 every 1

include         ../../data/6zfo/restraints/constraint_angletype
variable constraint_angletype  string "149"
fix             1 all shake 1e-6 500 0 m 1.008 a 149
Finding SHAKE clusters ...
    3822 = # of size 2 clusters
    1708 = # of size 3 clusters
     726 = # of size 4 clusters
  find clusters CPU = 0.209 seconds
fix             2 all npt temp 303.15 303.15 100.0 iso   0.9869233 0.9869233 1000 couple  xyz mtk no pchain 0

thermo          100
thermo_style    custom step time xlo xhi ylo yhi zlo zhi etotal pe ke temp press ebond eangle edihed eimp evdwl ecoul elong temp vol
dump            1 all dcd 5000 step5_production_mini.dcd
dump_modify     1 unwrap yes
dump            2 all custom 5000 step5_production_mini.dump id type x y z vx vy vz ix iy iz
dump_modify     2 append no

reset_timestep  0
run             1000

CITE-CITE-CITE-CITE-CITE-CITE-CITE-CITE-CITE-CITE-CITE-CITE-CITE

Your simulation uses code contributions which should be cited:
- Type Label Framework: https://doi.org/10.1021/acs.jpcb.3c08419
The log file lists these citations in BibTeX format.

CITE-CITE-CITE-CITE-CITE-CITE-CITE-CITE-CITE-CITE-CITE-CITE-CITE

PPPM Kokkos initialization ...
  G vector (1/distance) = 0.223306
  grid = 180 180 180
  stencil order = 5
  estimated absolute RMS force accuracy = 0.00034281929
  estimated relative force accuracy = 1.0323901e-06
  3d grid and FFT values/proc = 6539203 5832000
perform Pair::init()
initialize p_fhcut to: -1.000000, fhcut_value to -1.000000
Generated 0 of 1540 mixed pair_coeff terms from arithmetic mixing rule
cut_sq in NPairKokkos : 225.000000
Setting up Verlet run ...
  Unit style    : real
  Current step  : 0
  Time step     : 2
resize x_rel to 1242891
grow : resize neighbor special to 8
resize : resize neighbor special to 25
init lj param table, dim size : 57
init float d_table, table size : 4096
lazy init ev_array
lazy init x_doubleq
Step          Time           Xlo            Xhi            Ylo            Yhi            Zlo            Zhi           TotEng         PotEng         KinEng          Temp          Press          E_bond        E_angle        E_dihed        E_impro         E_vdwl         E_coul         E_long          Temp          Volume
0   0                   -101                  101                 -101                  101                 -101                  101                 -2099457.96349319    -2571648.74082725     472190.777334064     303.136650533955    -1058.54449687435     4166.58995356592     10944.1798133377     12702.5384018478     674.672845772161     249476.294630672     8308795.24082579    -11157754.445173      303.136650533955     8242408
resize x_rel to 1255319
lazy init x_doubleq
PairLJCharmmCoulLong::summary
PairLJCutKokkos::cuda_kernel_time = 0.000000
pair::summary_neighbor:
pair::neighbor_sort_time : 0.000000
pair::neighbor_build_time : 10.657675
Loop time of 105.671 on 20 procs for 1000 steps with 778254 atoms

write_data      step5_production_mini.data
System init for write_data ...
PPPM Kokkos initialization ...
  G vector (1/distance) = 0.22430783
  grid = 180 180 180
  stencil order = 5
  estimated absolute RMS force accuracy = 0.0003207378
  estimated relative force accuracy = 9.6589236e-07
  3d grid and FFT values/proc = 6539203 5832000
perform Pair::init()
initialize p_fhcut to: -1.000000, fhcut_value to -1.000000
Generated 0 of 1540 mixed pair_coeff terms from arithmetic mixing rule
cut_sq in NPairKokkos : 225.000000
Generating '/tmp/nsys-report-5d95.qdstrm'
[1/1] [0%                          ] report.nsys-rep[1/1] [0%                          ] report.nsys-rep[1/1] [5%                          ] report.nsys-rep[1/1] [6%                          ] report.nsys-rep[1/1] [5%                          ] report.nsys-rep[1/1] [7%                          ] report.nsys-rep[1/1] [6%                          ] report.nsys-rep[1/1] [8%                          ] report.nsys-rep[1/1] [9%                          ] report.nsys-rep[1/1] [10%                         ] report.nsys-rep[1/1] [11%                         ] report.nsys-rep[1/1] [10%                         ] report.nsys-rep[1/1] [12%                         ] report.nsys-rep[1/1] [11%                         ] report.nsys-rep[1/1] [12%                         ] report.nsys-rep[1/1] [13%                         ] report.nsys-rep[1/1] [14%                         ] report.nsys-rep[1/1] [=15%                        ] report.nsys-rep[1/1] [=16%                        ] report.nsys-rep[1/1] [=17%                        ] report.nsys-rep[1/1] [==18%                       ] report.nsys-rep[1/1] [==19%                       ] report.nsys-rep[1/1] [==20%                       ] report.nsys-rep[1/1] [==21%                       ] report.nsys-rep[1/1] [===22%                      ] report.nsys-rep[1/1] [===23%                      ] report.nsys-rep[1/1] [===24%                      ] report.nsys-rep[1/1] [====25%                     ] report.nsys-rep[1/1] [====26%                     ] report.nsys-rep[1/1] [====27%                     ] report.nsys-rep[1/1] [====28%                     ] report.nsys-rep[1/1] [=====29%                    ] report.nsys-rep[1/1] [=====30%                    ] report.nsys-rep[1/1] [=====31%                    ] report.nsys-rep[1/1] [=====32%                    ] report.nsys-rep[1/1] [======33%                   ] report.nsys-rep[1/1] [======34%                   ] report.nsys-rep[1/1] [======35%                   ] report.nsys-rep[1/1] [=======36%                  ] report.nsys-rep[1/1] [=======37%                  ] report.nsys-rep[1/1] [=======38%                  ] report.nsys-rep[1/1] [=======39%                  ] report.nsys-rep[1/1] [========40%                 ] report.nsys-rep[1/1] [========41%                 ] report.nsys-rep[1/1] [========42%                 ] report.nsys-rep[1/1] [=========43%                ] report.nsys-rep[1/1] [=========44%                ] report.nsys-rep[1/1] [=========45%                ] report.nsys-rep[1/1] [=========46%                ] report.nsys-rep[1/1] [==========47%               ] report.nsys-rep[1/1] [==========48%               ] report.nsys-rep[1/1] [==========49%               ] report.nsys-rep[1/1] [===========50%              ] report.nsys-rep[1/1] [===========51%              ] report.nsys-rep[1/1] [===========52%              ] report.nsys-rep[1/1] [===========53%              ] report.nsys-rep[1/1] [============54%             ] report.nsys-rep[1/1] [============55%             ] report.nsys-rep[1/1] [============56%             ] report.nsys-rep[1/1] [============57%             ] report.nsys-rep[1/1] [=============58%            ] report.nsys-rep[1/1] [=============59%            ] report.nsys-rep[1/1] [=============60%            ] report.nsys-rep[1/1] [==============61%           ] report.nsys-rep[1/1] [==============62%           ] report.nsys-rep[1/1] [==============63%           ] report.nsys-rep[1/1] [==============64%           ] report.nsys-rep[1/1] [===============65%          ] report.nsys-rep[1/1] [===============66%          ] report.nsys-rep[1/1] [===============67%          ] report.nsys-rep[1/1] [================68%         ] report.nsys-rep[1/1] [================69%         ] report.nsys-rep[1/1] [================70%         ] report.nsys-rep[1/1] [================71%         ] report.nsys-rep[1/1] [=================72%        ] report.nsys-rep[1/1] [=================73%        ] report.nsys-rep[1/1] [=================74%        ] report.nsys-rep[1/1] [==================75%       ] report.nsys-rep[1/1] [==================76%       ] report.nsys-rep[1/1] [==================77%       ] report.nsys-rep[1/1] [==================78%       ] report.nsys-rep[1/1] [===================79%      ] report.nsys-rep[1/1] [===================80%      ] report.nsys-rep[1/1] [========================100%] report.nsys-rep[1/1] [========================100%] report.nsys-rep
Generated:
    /fasthome/leenldk/work/lammps_dev/verification/6zfo_memory_usage/FP64_optimized/report.nsys-rep
