LAMMPS (29 Aug 2024 - Update 1)
KOKKOS mode with Kokkos version 4.3.1 is enabled (src/KOKKOS/kokkos.cpp:72)
  will use up to 1 GPU(s) per node
variable        dcdfreq index 5000
variable        data_dir index ../../data/6zfo
variable        outputname index step5_production_mini
variable        inputname  index ../../data/6zfo/step4.1_equilibration

units           real
boundary        p p p

newton          on
pair_style      lj/charmm/coul/long 6 8
pair_modify     mix arithmetic
kspace_style    pppm 1e-6

prec_type       default
set prec_type to default precision

atom_style      full
bond_style      harmonic
angle_style     charmm
dihedral_style  charmm
special_bonds   charmm
improper_style  harmonic
timestep        2

fix             cmap all cmap ../../data/6zfo/charmmff.cmap
Reading CMAP parameters from: ../../data/6zfo/charmmff.cmap
fix_modify      cmap energy yes
read_data       ../../data/6zfo/step3_input.data fix cmap crossterm CMAP
Reading data file ...
  orthogonal box = (-101 -101 -101) to (101 101 101)
  reading atoms ...
  778254 atoms
  scanning bonds ...
  scanning angles ...
  scanning dihedrals ...
  scanning impropers ...
  orthogonal box = (-101 -101 -101) to (101 101 101)
  reading bonds ...
  524508 bonds
  reading angles ...
  287460 angles
  reading dihedrals ...
  61096 dihedrals
  reading impropers ...
  3292 impropers
Finding 1-2 1-3 1-4 neighbors ...
     4 = max # of 1-2 neighbors
     9 = max # of 1-3 neighbors
    19 = max # of 1-4 neighbors
    21 = max # of special neighbors

variable        laststep file ../../data/6zfo/step4.1_equilibration.dump
next            laststep
read_dump       ../../data/6zfo/step4.1_equilibration.dump 25000  x y z vx vy vz ix iy iz box yes replace yes format native
Scanning dump file ...
Reading snapshot from dump file ...
  orthogonal box = (-101 -101 -101) to (101 101 101)
  778254 atoms before read
  778254 atoms in snapshot
  0 atoms purged
  778254 atoms replaced
  0 atoms trimmed
  0 atoms added
  778254 atoms after read

neighbor        2 bin
neigh_modify    delay 5 every 1

include         ../../data/6zfo/restraints/constraint_angletype
variable constraint_angletype  string "149"
fix             1 all shake 1e-6 500 0 m 1.008 a 149
Finding SHAKE clusters ...
    3822 = # of size 2 clusters
    1708 = # of size 3 clusters
     726 = # of size 4 clusters
  find clusters CPU = 0.253 seconds
fix             2 all npt temp 303.15 303.15 100.0 iso   0.9869233 0.9869233 1000 couple  xyz mtk no pchain 0

thermo          10
thermo_style    custom step time xlo xhi ylo yhi zlo zhi etotal pe ke temp press ebond eangle edihed eimp evdwl ecoul elong temp vol
dump            1 all dcd 5000 step5_production_mini.dcd
dump_modify     1 unwrap yes
dump            2 all custom 5000 step5_production_mini.dump id type x y z vx vy vz ix iy iz
dump_modify     2 append no

reset_timestep  0
run             1000

CITE-CITE-CITE-CITE-CITE-CITE-CITE-CITE-CITE-CITE-CITE-CITE-CITE

Your simulation uses code contributions which should be cited:
- Type Label Framework: https://doi.org/10.1021/acs.jpcb.3c08419
The log file lists these citations in BibTeX format.

CITE-CITE-CITE-CITE-CITE-CITE-CITE-CITE-CITE-CITE-CITE-CITE-CITE

PPPM Kokkos initialization ...
  G vector (1/distance) = 0.42346375
  grid = 360 360 360
  stencil order = 5
  estimated absolute RMS force accuracy = 0.0003570352
  estimated relative force accuracy = 1.0752009e-06
  3d grid and FFT values/proc = 50243409 46656000
perform Pair::init()
initialize p_fhcut to: -1.000000, fhcut_value to -1.000000
Generated 0 of 1540 mixed pair_coeff terms from arithmetic mixing rule
cut_sq in NPairKokkos : 64.000000
Setting up Verlet run ...
  Unit style    : real
  Current step  : 0
  Time step     : 2
resize x_rel to 1039089
grow: resize d_neighbors to : 856079 * 16
resize d_neighbors to : 856079 * 487
init lj param table, dim size : 57
init float d_table, table size : 4096
Step          Time           Xlo            Xhi            Ylo            Yhi            Zlo            Zhi           TotEng         PotEng         KinEng          Temp          Press          E_bond        E_angle        E_dihed        E_impro         E_vdwl         E_coul         E_long          Temp          Volume
0   0                   -101                  101                 -101                  101                 -101                  101                 -2070601.69509706    -2542792.47243112     472190.777334064     303.136650533955    -820.510750181907     4166.58995356592     10944.1798133377     12702.5384018478     674.672845772161     278318.845716844     18251927.9433509    -21100873.4303882     303.136650533955     8242408
Averages over the last 51 of 101 rows, steps 500 to 1000:
Xlo Xhi Ylo Yhi Zlo Zhi TotEng PotEng KinEng Temp Press E_bond E_angle E_dihed E_impro E_vdwl E_coul E_long Temp Volume
-99.2224 99.2224 -99.2224 99.2224 -99.2224 99.2224 -2.09566e+06 -2.56787e+06 472208 303.148 -0.228752 4151.49 10980.1 12671.2 685.039 287080 1.82222e+07 -2.1105e+07 303.148 7.81483e+06
PairLJCharmmCoulLong::summary
PairLJCutKokkos::cuda_kernel_time = 0.000000
pair::summary_neighbor:
pair::neighbor_sort_time : 0.000000
pair::neighbor_build_time : 1.905424
Loop time of 309.372 on 20 procs for 1000 steps with 778254 atoms

write_data      step5_production_mini.data
System init for write_data ...
PPPM Kokkos initialization ...
  G vector (1/distance) = 0.42548255
  grid = 360 360 360
  stencil order = 5
  estimated absolute RMS force accuracy = 0.00033486616
  estimated relative force accuracy = 1.0084395e-06
  3d grid and FFT values/proc = 50243409 46656000
perform Pair::init()
initialize p_fhcut to: -1.000000, fhcut_value to -1.000000
Generated 0 of 1540 mixed pair_coeff terms from arithmetic mixing rule
cut_sq in NPairKokkos : 64.000000
